third_party/pitt/J1_full model/distributedgen.DSS
! Created with Distribute Command:
! Distribute kW=2000 PF=1 How=proportional Skip=1  file=distributedgen.DSS

new generator.DG_1  bus1=ls_bus.1.2.3 phases=3 kV=12.47 kW=913.239931774279 PF=1 model=1
new generator.DG_2  bus1=x_b13552_cust4-a.1 phases=1 kV=0.24 kW=0.491269613096557 PF=1 model=1
new generator.DG_3  bus1=x_b13552_cust3-a.1 phases=1 kV=0.24 kW=0.491269613096557 PF=1 model=1
new generator.DG_4  bus1=x_b13552_cust2-a.1 phases=1 kV=0.24 kW=0.491269613096557 PF=1 model=1
new generator.DG_5  bus1=x_b13552_cust1-a.1 phases=1 kV=0.24 kW=0.491269613096557 PF=1 model=1
new generator.DG_6  bus1=x_b34986_cust1-c.3 phases=1 kV=0.24 kW=0.942628650311526 PF=1 model=1
new generator.DG_7  bus1=x_b45835_cust2-b.2 phases=1 kV=0.24 kW=0.643312317471452 PF=1 model=1
new generator.DG_8  bus1=x_b45835_cust1-b.2 phases=1 kV=0.24 kW=0.643312317471452 PF=1 model=1
new generator.DG_9  bus1=x_b50640_cust1-a.1 phases=1 kV=0.24 kW=0.736904405946236 PF=1 model=1
new generator.DG_10  bus1=x_b4805_cust6-c.3 phases=1 kV=0.24 kW=0.314209544015577 PF=1 model=1
new generator.DG_11  bus1=x_b4805_cust5-c.3 phases=1 kV=0.24 kW=0.314209544015577 PF=1 model=1
new generator.DG_12  bus1=x_b4805_cust4-c.3 phases=1 kV=0.24 kW=0.314209544015577 PF=1 model=1
new generator.DG_13  bus1=x_b4805_cust3-c.3 phases=1 kV=0.24 kW=0.314209544015577 PF=1 model=1
new generator.DG_14  bus1=x_b4805_cust2-c.3 phases=1 kV=0.24 kW=0.314209544015577 PF=1 model=1
new generator.DG_15  bus1=x_b4805_cust1-c.3 phases=1 kV=0.24 kW=0.314209544015577 PF=1 model=1
new generator.DG_16  bus1=x_b4710_cust1-a.1 phases=1 kV=0.24 kW=0.736904405946236 PF=1 model=1
new generator.DG_17  bus1=x_b4859_cust3-a.1 phases=1 kV=0.24 kW=0.409391336636799 PF=1 model=1
new generator.DG_18  bus1=x_b4859_cust2-a.1 phases=1 kV=0.24 kW=0.409391336636799 PF=1 model=1
new generator.DG_19  bus1=x_b4859_cust1-a.1 phases=1 kV=0.24 kW=0.409391336636799 PF=1 model=1
new generator.DG_20  bus1=x_b4859_cust3-b.2 phases=1 kV=0.24 kW=0.428874878314301 PF=1 model=1
new generator.DG_21  bus1=x_b4859_cust2-b.2 phases=1 kV=0.24 kW=0.428874878314301 PF=1 model=1
new generator.DG_22  bus1=x_b4859_cust1-b.2 phases=1 kV=0.24 kW=0.428874878314301 PF=1 model=1
new generator.DG_23  bus1=x_b4859_cust3-c.3 phases=1 kV=0.24 kW=0.314209550103842 PF=1 model=1
new generator.DG_24  bus1=x_b4859_cust2-c.3 phases=1 kV=0.24 kW=0.314209550103842 PF=1 model=1
new generator.DG_25  bus1=x_b4859_cust1-c.3 phases=1 kV=0.24 kW=0.314209550103842 PF=1 model=1
new generator.DG_26  bus1=x_b41240_cust1-a.1 phases=1 kV=0.24 kW=0.736904405946236 PF=1 model=1
new generator.DG_27  bus1=x_b55546_cust1-c.3 phases=1 kV=0.24 kW=0.565577179228037 PF=1 model=1
new generator.DG_28  bus1=x_b18979_cust2-c.3 phases=1 kV=0.24 kW=0.282788589614018 PF=1 model=1
new generator.DG_29  bus1=x_b18979_cust1-c.3 phases=1 kV=0.24 kW=0.282788589614018 PF=1 model=1
new generator.DG_30  bus1=x_b4982_cust2-b.2 phases=1 kV=0.24 kW=0.385987386829911 PF=1 model=1
new generator.DG_31  bus1=x_b4982_cust1-b.2 phases=1 kV=0.24 kW=0.385987386829911 PF=1 model=1
new generator.DG_32  bus1=x_b18902_cust2-a.1 phases=1 kV=0.24 kW=0.368452202973118 PF=1 model=1
new generator.DG_33  bus1=x_b18902_cust1-a.1 phases=1 kV=0.24 kW=0.368452202973118 PF=1 model=1
new generator.DG_34  bus1=x_b2532_cust1-a.1 phases=1 kV=0.24 kW=0.736904405946236 PF=1 model=1
new generator.DG_35  bus1=x_b47668_cust1-a.1 phases=1 kV=0.24 kW=0.736904405946236 PF=1 model=1
new generator.DG_36  bus1=x_b47668_cust1-b.2 phases=1 kV=0.24 kW=0.771974773659823 PF=1 model=1
new generator.DG_37  bus1=x_b47668_cust1-c.3 phases=1 kV=0.24 kW=0.565577179228037 PF=1 model=1
new generator.DG_38  bus1=x_b4891_cust3-c.3 phases=1 kV=0.24 kW=0.314209550103842 PF=1 model=1
new generator.DG_39  bus1=x_b4891_cust2-c.3 phases=1 kV=0.24 kW=0.314209550103842 PF=1 model=1
new generator.DG_40  bus1=x_b4891_cust1-c.3 phases=1 kV=0.24 kW=0.314209550103842 PF=1 model=1
new generator.DG_41  bus1=x_b18858_cust1-b.2 phases=1 kV=0.24 kW=0.771974773659823 PF=1 model=1
new generator.DG_42  bus1=x_5851228580_cust1-c.3 phases=1 kV=0.24 kW=0.942628650311526 PF=1 model=1
new generator.DG_43  bus1=x_b18971_cust3-c.3 phases=1 kV=0.24 kW=0.314209550103842 PF=1 model=1
new generator.DG_44  bus1=x_b18971_cust2-c.3 phases=1 kV=0.24 kW=0.314209550103842 PF=1 model=1
new generator.DG_45  bus1=x_b18971_cust1-c.3 phases=1 kV=0.24 kW=0.314209550103842 PF=1 model=1
new generator.DG_46  bus1=x_b8019_cust6-c.3 phases=1 kV=0.24 kW=0.157104775051921 PF=1 model=1
new generator.DG_47  bus1=x_b8019_cust5-c.3 phases=1 kV=0.24 kW=0.157104775051921 PF=1 model=1
new generator.DG_48  bus1=x_b8019_cust4-c.3 phases=1 kV=0.24 kW=0.157104775051921 PF=1 model=1
new generator.DG_49  bus1=x_b8019_cust3-c.3 phases=1 kV=0.24 kW=0.157104775051921 PF=1 model=1
new generator.DG_50  bus1=x_b8019_cust2-c.3 phases=1 kV=0.24 kW=0.157104775051921 PF=1 model=1
new generator.DG_51  bus1=x_b8019_cust1-c.3 phases=1 kV=0.24 kW=0.157104775051921 PF=1 model=1
new generator.DG_52  bus1=x_b60843_cust1-c.3 phases=1 kV=0.24 kW=0.565577179228037 PF=1 model=1
new generator.DG_53  bus1=x_b44432_cust1-c.3 phases=1 kV=0.24 kW=0.377051452818691 PF=1 model=1
new generator.DG_54  bus1=x_b52584_cust1-b.2 phases=1 kV=0.24 kW=1.2866246349429 PF=1 model=1
new generator.DG_55  bus1=x_b41463_cust1-c.3 phases=1 kV=0.24 kW=0.942628650311526 PF=1 model=1
new generator.DG_56  bus1=x_5905728658_cust1-b.2 phases=1 kV=0.24 kW=0.771974773659823 PF=1 model=1
new generator.DG_57  bus1=x_b15821_cust1-c.3 phases=1 kV=0.24 kW=0.565577179228037 PF=1 model=1
new generator.DG_58  bus1=x_b18850_cust2-b.2 phases=1 kV=0.24 kW=0.385987386829911 PF=1 model=1
new generator.DG_59  bus1=x_b18850_cust1-b.2 phases=1 kV=0.24 kW=0.385987386829911 PF=1 model=1
new generator.DG_60  bus1=x_b18866_cust4-a.1 phases=1 kV=0.24 kW=0.184226101486559 PF=1 model=1
new generator.DG_61  bus1=x_b18866_cust3-a.1 phases=1 kV=0.24 kW=0.184226101486559 PF=1 model=1
new generator.DG_62  bus1=x_b18866_cust2-a.1 phases=1 kV=0.24 kW=0.184226101486559 PF=1 model=1
new generator.DG_63  bus1=x_b18866_cust1-a.1 phases=1 kV=0.24 kW=0.184226101486559 PF=1 model=1
new generator.DG_64  bus1=x_6060229368_cust1-b.2 phases=1 kV=0.24 kW=1.2866246349429 PF=1 model=1
new generator.DG_65  bus1=x_b52162_cust1-a.1 phases=1 kV=0.24 kW=0.736904405946236 PF=1 model=1
new generator.DG_66  bus1=x_g43337_cust1-a.1 phases=1 kV=0.24 kW=0.736904405946236 PF=1 model=1
new generator.DG_67  bus1=x_b18977_cust3-c.3 phases=1 kV=0.24 kW=0.188525726409346 PF=1 model=1
new generator.DG_68  bus1=x_b18977_cust2-c.3 phases=1 kV=0.24 kW=0.188525726409346 PF=1 model=1
new generator.DG_69  bus1=x_b18977_cust1-c.3 phases=1 kV=0.24 kW=0.188525726409346 PF=1 model=1
new generator.DG_70  bus1=x_b18839_cust1-b.2 phases=1 kV=0.24 kW=0.771974773659823 PF=1 model=1
new generator.DG_71  bus1=x_b46251_cust1-c.3 phases=1 kV=0.24 kW=0.377051452818691 PF=1 model=1
new generator.DG_72  bus1=x_b18925_cust1-b.2 phases=1 kV=0.24 kW=0.514649843018282 PF=1 model=1
new generator.DG_73  bus1=x_b22569_cust1-a.1 phases=1 kV=0.24 kW=0.736904405946236 PF=1 model=1
new generator.DG_74  bus1=x_b23880_cust1-c.3 phases=1 kV=0.24 kW=0.942628650311526 PF=1 model=1
new generator.DG_75  bus1=x_b3066_cust1-c.3 phases=1 kV=0.24 kW=0.942628650311526 PF=1 model=1
new generator.DG_76  bus1=x_b63365_cust1-b.2 phases=1 kV=0.24 kW=1.2866246349429 PF=1 model=1
new generator.DG_77  bus1=x_b26203_cust1-c.3 phases=1 kV=0.24 kW=0.565577179228037 PF=1 model=1
new generator.DG_78  bus1=x_b23869_cust1-c.3 phases=1 kV=0.24 kW=0.565577179228037 PF=1 model=1
new generator.DG_79  bus1=x_b56446_cust1-a.1 phases=1 kV=0.24 kW=0.736904405946236 PF=1 model=1
new generator.DG_80  bus1=x_b18986_cust1-c.3 phases=1 kV=0.24 kW=0.942628650311526 PF=1 model=1
new generator.DG_81  bus1=x_b13651_cust16-a.1 phases=1 kV=0.24 kW=0.115141313429099 PF=1 model=1
new generator.DG_82  bus1=x_b13651_cust15-a.1 phases=1 kV=0.24 kW=0.115141313429099 PF=1 model=1
new generator.DG_83  bus1=x_b13651_cust14-a.1 phases=1 kV=0.24 kW=0.115141313429099 PF=1 model=1
new generator.DG_84  bus1=x_b13651_cust13-a.1 phases=1 kV=0.24 kW=0.115141313429099 PF=1 model=1
new generator.DG_85  bus1=x_b13651_cust12-a.1 phases=1 kV=0.24 kW=0.115141313429099 PF=1 model=1
new generator.DG_86  bus1=x_b13651_cust11-a.1 phases=1 kV=0.24 kW=0.115141313429099 PF=1 model=1
new generator.DG_87  bus1=x_b13651_cust10-a.1 phases=1 kV=0.24 kW=0.115141313429099 PF=1 model=1
new generator.DG_88  bus1=x_b13651_cust9-a.1 phases=1 kV=0.24 kW=0.115141313429099 PF=1 model=1
new generator.DG_89  bus1=x_b13651_cust8-a.1 phases=1 kV=0.24 kW=0.115141313429099 PF=1 model=1
new generator.DG_90  bus1=x_b13651_cust7-a.1 phases=1 kV=0.24 kW=0.115141313429099 PF=1 model=1
new generator.DG_91  bus1=x_b13651_cust6-a.1 phases=1 kV=0.24 kW=0.115141313429099 PF=1 model=1
new generator.DG_92  bus1=x_b13651_cust5-a.1 phases=1 kV=0.24 kW=0.115141313429099 PF=1 model=1
new generator.DG_93  bus1=x_b13651_cust4-a.1 phases=1 kV=0.24 kW=0.115141313429099 PF=1 model=1
new generator.DG_94  bus1=x_b13651_cust3-a.1 phases=1 kV=0.24 kW=0.115141313429099 PF=1 model=1
new generator.DG_95  bus1=x_b13651_cust2-a.1 phases=1 kV=0.24 kW=0.115141313429099 PF=1 model=1
new generator.DG_96  bus1=x_b13651_cust1-a.1 phases=1 kV=0.24 kW=0.115141313429099 PF=1 model=1
new generator.DG_97  bus1=x_6034628876_cust1-c.3 phases=1 kV=0.24 kW=0.942628650311526 PF=1 model=1
new generator.DG_98  bus1=x_b17575_cust1-c.3 phases=1 kV=0.24 kW=0.942628650311526 PF=1 model=1
new generator.DG_99  bus1=x_b10925_cust3-c.3 phases=1 kV=0.24 kW=0.188525726409346 PF=1 model=1
new generator.DG_100  bus1=x_b10925_cust2-c.3 phases=1 kV=0.24 kW=0.188525726409346 PF=1 model=1
new generator.DG_101  bus1=x_b10925_cust1-c.3 phases=1 kV=0.24 kW=0.188525726409346 PF=1 model=1
new generator.DG_102  bus1=x_b23406_cust1-a.1 phases=1 kV=0.24 kW=1.22817400991039 PF=1 model=1
new generator.DG_103  bus1=x_b4594_cust3-c.3 phases=1 kV=0.24 kW=0.471314319067498 PF=1 model=1
new generator.DG_104  bus1=x_b4594_cust2-c.3 phases=1 kV=0.24 kW=0.471314319067498 PF=1 model=1
new generator.DG_105  bus1=x_b4594_cust1-c.3 phases=1 kV=0.24 kW=0.471314319067498 PF=1 model=1
new generator.DG_106  bus1=x_6018228840_cust1-c.3 phases=1 kV=0.24 kW=1.88525726409346 PF=1 model=1
new generator.DG_107  bus1=x_b5185_cust1-c.3 phases=1 kV=0.24 kW=0.942628650311526 PF=1 model=1
new generator.DG_108  bus1=x_b48180_cust1-c.3 phases=1 kV=0.24 kW=0.565577179228037 PF=1 model=1
new generator.DG_109  bus1=x_g35573_cust1-a.1 phases=1 kV=0.24 kW=1.84226101486559 PF=1 model=1
new generator.DG_110  bus1=x_g35573_cust1-b.2 phases=1 kV=0.24 kW=1.92993697981155 PF=1 model=1
new generator.DG_111  bus1=x_g35573_cust1-c.3 phases=1 kV=0.24 kW=1.41394295720249 PF=1 model=1
new generator.DG_112  bus1=x_b59582_cust1-c.3 phases=1 kV=0.24 kW=0.565577179228037 PF=1 model=1
new generator.DG_113  bus1=x_g33468_cust1-b.2 phases=1 kV=0.24 kW=0.771974773659823 PF=1 model=1
new generator.DG_114  bus1=x_b4861_cust7-b.2 phases=1 kV=0.24 kW=0.275705282830222 PF=1 model=1
new generator.DG_115  bus1=x_b4861_cust6-b.2 phases=1 kV=0.24 kW=0.275705282830222 PF=1 model=1
new generator.DG_116  bus1=x_b4861_cust5-b.2 phases=1 kV=0.24 kW=0.275705282830222 PF=1 model=1
new generator.DG_117  bus1=x_b4861_cust4-b.2 phases=1 kV=0.24 kW=0.275705282830222 PF=1 model=1
new generator.DG_118  bus1=x_b4861_cust3-b.2 phases=1 kV=0.24 kW=0.275705282830222 PF=1 model=1
new generator.DG_119  bus1=x_b4861_cust2-b.2 phases=1 kV=0.24 kW=0.275705282830222 PF=1 model=1
new generator.DG_120  bus1=x_b4861_cust1-b.2 phases=1 kV=0.24 kW=0.275705282830222 PF=1 model=1
new generator.DG_121  bus1=x_6000828811_cust1-a.1 phases=1 kV=0.24 kW=1.96507845238623 PF=1 model=1
new generator.DG_122  bus1=x_b18995_cust1-c.3 phases=1 kV=0.24 kW=0.565577179228037 PF=1 model=1
new generator.DG_123  bus1=x_g42394_cust1-c.3 phases=1 kV=0.24 kW=0.565577179228037 PF=1 model=1
new generator.DG_124  bus1=x_b36183_cust1-c.3 phases=1 kV=0.24 kW=0.565577179228037 PF=1 model=1
new generator.DG_125  bus1=x_b62294_cust2-c.3 phases=1 kV=0.24 kW=0.471314325155763 PF=1 model=1
new generator.DG_126  bus1=x_b62294_cust1-c.3 phases=1 kV=0.24 kW=0.471314325155763 PF=1 model=1
new generator.DG_127  bus1=x_g35320_cust1-b.2 phases=1 kV=0.24 kW=0.771974773659823 PF=1 model=1
new generator.DG_128  bus1=x_g40623_cust2-a.1 phases=1 kV=0.24 kW=0.614087004955197 PF=1 model=1
new generator.DG_129  bus1=x_g40623_cust1-a.1 phases=1 kV=0.24 kW=0.614087004955197 PF=1 model=1
new generator.DG_130  bus1=x_b34541_cust1-a.1 phases=1 kV=0.24 kW=0.736904405946236 PF=1 model=1
new generator.DG_131  bus1=x_b19071_cust1-c.3 phases=1 kV=0.24 kW=0.565577179228037 PF=1 model=1
new generator.DG_132  bus1=x_b39820_cust1-c.3 phases=1 kV=0.24 kW=0.942628650311526 PF=1 model=1
new generator.DG_133  bus1=x_5857829226_cust1-c.3 phases=1 kV=0.24 kW=0.942628650311526 PF=1 model=1
new generator.DG_134  bus1=x_5920428274_cust1-c.3 phases=1 kV=0.24 kW=0.942628650311526 PF=1 model=1
new generator.DG_135  bus1=x_b24281_cust2-c.3 phases=1 kV=0.24 kW=0.282788589614018 PF=1 model=1
new generator.DG_136  bus1=x_b24281_cust1-c.3 phases=1 kV=0.24 kW=0.282788589614018 PF=1 model=1
new generator.DG_137  bus1=x_b18912_cust1-b.2 phases=1 kV=0.24 kW=1.2866246349429 PF=1 model=1
new generator.DG_138  bus1=x_b60940_cust3-c.3 phases=1 kV=0.24 kW=0.314209550103842 PF=1 model=1
new generator.DG_139  bus1=x_b60940_cust2-c.3 phases=1 kV=0.24 kW=0.314209550103842 PF=1 model=1
new generator.DG_140  bus1=x_b60940_cust1-c.3 phases=1 kV=0.24 kW=0.314209550103842 PF=1 model=1
new generator.DG_141  bus1=x_b4579_cust2-a.1 phases=1 kV=0.24 kW=0.491269603964158 PF=1 model=1
new generator.DG_142  bus1=x_b4579_cust1-a.1 phases=1 kV=0.24 kW=0.491269603964158 PF=1 model=1
new generator.DG_143  bus1=x_b4579_cust2-c.3 phases=1 kV=0.24 kW=0.377051452818691 PF=1 model=1
new generator.DG_144  bus1=x_b4579_cust1-c.3 phases=1 kV=0.24 kW=0.377051452818691 PF=1 model=1
new generator.DG_145  bus1=x_b4994_cust1-a.1 phases=1 kV=0.24 kW=0.736904405946236 PF=1 model=1
new generator.DG_146  bus1=x_b61632_cust1-a.1 phases=1 kV=0.24 kW=4.91269603964158 PF=1 model=1
new generator.DG_147  bus1=x_b61632_cust1-b.2 phases=1 kV=0.24 kW=5.14649843018282 PF=1 model=1
new generator.DG_148  bus1=x_b61632_cust1-c.3 phases=1 kV=0.24 kW=3.77051452818691 PF=1 model=1
new generator.DG_149  bus1=x_b18886_cust1-b.2 phases=1 kV=0.24 kW=0.771974773659823 PF=1 model=1
new generator.DG_150  bus1=x_5979429639_cust1-b.2 phases=1 kV=0.24 kW=1.2866246349429 PF=1 model=1
new generator.DG_151  bus1=x_b18941_cust3-a.1 phases=1 kV=0.24 kW=0.614087004955197 PF=1 model=1
new generator.DG_152  bus1=x_b18941_cust2-a.1 phases=1 kV=0.24 kW=0.614087004955197 PF=1 model=1
new generator.DG_153  bus1=x_b18941_cust1-a.1 phases=1 kV=0.24 kW=0.614087004955197 PF=1 model=1
new generator.DG_154  bus1=x_g40138_cust1-c.3 phases=1 kV=0.24 kW=0.565577179228037 PF=1 model=1
new generator.DG_155  bus1=x_b18855_cust2-b.2 phases=1 kV=0.24 kW=0.385987386829911 PF=1 model=1
new generator.DG_156  bus1=x_b18855_cust1-b.2 phases=1 kV=0.24 kW=0.385987386829911 PF=1 model=1
new generator.DG_157  bus1=x_b4673_cust1-a.1 phases=1 kV=0.24 kW=1.22817400991039 PF=1 model=1
new generator.DG_158  bus1=x_b19064_cust1-c.3 phases=1 kV=0.24 kW=0.565577179228037 PF=1 model=1
new generator.DG_159  bus1=x_b45445_cust2-c.3 phases=1 kV=0.24 kW=0.188525726409346 PF=1 model=1
new generator.DG_160  bus1=x_b45445_cust1-c.3 phases=1 kV=0.24 kW=0.188525726409346 PF=1 model=1
new generator.DG_161  bus1=x_b57500_cust1-b.2 phases=1 kV=0.24 kW=0.771974773659823 PF=1 model=1
new generator.DG_162  bus1=x_b14324_cust1-a.1 phases=1 kV=0.24 kW=0.736904405946236 PF=1 model=1
new generator.DG_163  bus1=x_b60757_cust1-c.3 phases=1 kV=0.24 kW=0.565577179228037 PF=1 model=1
new generator.DG_164  bus1=x_g34723_cust1-c.3 phases=1 kV=0.24 kW=0.565577179228037 PF=1 model=1
new generator.DG_165  bus1=x_b22571_cust3-c.3 phases=1 kV=0.24 kW=0.188525726409346 PF=1 model=1
new generator.DG_166  bus1=x_b22571_cust2-c.3 phases=1 kV=0.24 kW=0.188525726409346 PF=1 model=1
new generator.DG_167  bus1=x_b22571_cust1-c.3 phases=1 kV=0.24 kW=0.188525726409346 PF=1 model=1
new generator.DG_168  bus1=x_b13555_cust2-a.1 phases=1 kV=0.24 kW=0.614087004955197 PF=1 model=1
new generator.DG_169  bus1=x_b13555_cust1-a.1 phases=1 kV=0.24 kW=0.614087004955197 PF=1 model=1
new generator.DG_170  bus1=x_b23889_cust1-c.3 phases=1 kV=0.24 kW=0.565577179228037 PF=1 model=1
new generator.DG_171  bus1=x_b43440_cust3-b.2 phases=1 kV=0.24 kW=0.643312326603851 PF=1 model=1
new generator.DG_172  bus1=x_b43440_cust2-b.2 phases=1 kV=0.24 kW=0.643312326603851 PF=1 model=1
new generator.DG_173  bus1=x_b43440_cust1-b.2 phases=1 kV=0.24 kW=0.643312326603851 PF=1 model=1
new generator.DG_174  bus1=x_5904428572_cust2-b.2 phases=1 kV=0.24 kW=0.385987386829911 PF=1 model=1
new generator.DG_175  bus1=x_5904428572_cust1-b.2 phases=1 kV=0.24 kW=0.385987386829911 PF=1 model=1
new generator.DG_176  bus1=x_b41085_cust1-b.2 phases=1 kV=0.24 kW=1.2866246349429 PF=1 model=1
new generator.DG_177  bus1=x_b41085_cust1-c.3 phases=1 kV=0.24 kW=0.942628650311526 PF=1 model=1
new generator.DG_178  bus1=x_b19021_cust1-a.1 phases=1 kV=0.24 kW=0.736904405946236 PF=1 model=1
new generator.DG_179  bus1=x_6053129341_cust1-b.2 phases=1 kV=0.24 kW=1.2866246349429 PF=1 model=1
new generator.DG_180  bus1=x_6059129162_cust1-c.3 phases=1 kV=0.24 kW=0.942628650311526 PF=1 model=1
new generator.DG_181  bus1=x_b60934_cust2-c.3 phases=1 kV=0.24 kW=0.282788589614018 PF=1 model=1
new generator.DG_182  bus1=x_b60934_cust1-c.3 phases=1 kV=0.24 kW=0.282788589614018 PF=1 model=1
new generator.DG_183  bus1=x_5993629800_cust1-b.2 phases=1 kV=0.24 kW=1.2866246349429 PF=1 model=1
new generator.DG_184  bus1=x_b63785_cust1-c.3 phases=1 kV=0.24 kW=0.565577179228037 PF=1 model=1
new generator.DG_185  bus1=x_b59172_cust1-b.2 phases=1 kV=0.24 kW=1.2866246349429 PF=1 model=1
new generator.DG_186  bus1=x_5962929303_cust1-b.2 phases=1 kV=0.24 kW=1.2866246349429 PF=1 model=1
new generator.DG_187  bus1=x_b4826_cust1-b.2 phases=1 kV=0.24 kW=0.771974773659823 PF=1 model=1
new generator.DG_188  bus1=x_b4826_cust1-c.3 phases=1 kV=0.24 kW=0.565577179228037 PF=1 model=1
new generator.DG_189  bus1=x_b28551_cust1-b.2 phases=1 kV=0.24 kW=0.514649843018282 PF=1 model=1
new generator.DG_190  bus1=x_b28551_cust1-c.3 phases=1 kV=0.24 kW=0.377051452818691 PF=1 model=1
new generator.DG_191  bus1=x_b4795_cust4-c.3 phases=1 kV=0.24 kW=0.235657162577882 PF=1 model=1
new generator.DG_192  bus1=x_b4795_cust3-c.3 phases=1 kV=0.24 kW=0.235657162577882 PF=1 model=1
new generator.DG_193  bus1=x_b4795_cust2-c.3 phases=1 kV=0.24 kW=0.235657162577882 PF=1 model=1
new generator.DG_194  bus1=x_b4795_cust1-c.3 phases=1 kV=0.24 kW=0.235657162577882 PF=1 model=1
new generator.DG_195  bus1=x_b5186_cust1-b.2 phases=1 kV=0.24 kW=0.771974773659823 PF=1 model=1
new generator.DG_196  bus1=x_b5193_cust2-b.2 phases=1 kV=0.24 kW=0.385987386829911 PF=1 model=1
new generator.DG_197  bus1=x_b5193_cust1-b.2 phases=1 kV=0.24 kW=0.385987386829911 PF=1 model=1
new generator.DG_198  bus1=x_b41861_cust2-b.2 phases=1 kV=0.24 kW=0.643312317471452 PF=1 model=1
new generator.DG_199  bus1=x_b41861_cust1-b.2 phases=1 kV=0.24 kW=0.643312317471452 PF=1 model=1
new generator.DG_200  bus1=x_b56325_cust1-a.1 phases=1 kV=0.24 kW=8.20420234236591 PF=1 model=1
...
